11
pyridine
  C        4.7982702085       6.6523968892       5.4999657359
  C        6.2099555559       6.7111329742       5.5000348174
  C        6.9319604281       5.4999994944       5.5000000063
  C        6.2099524838       4.2888639433       5.4999652017
  C        4.7982672642       4.3476059861       5.5000342643
  N        4.0860798521       5.5000007909       5.4999999687
  H        4.2021046131       7.5835333693       5.4999030818
  H        6.7250120968       7.6852137468       5.5000779508
  H        8.0346409409       5.4999967169       5.5000000262
  H        6.7250074315       3.3147843103       5.4999221053
  H        4.2020997593       3.4164693609       5.5000969655
